# STEP-ROM

Единый проект для последовательного запуска STEP-ROM пайплайна:

1. экспорт `model.key`, `real_load.key` и модальных файлов из Ansys Workbench;
2. генерация STEP LS-DYNA `.k` deck-файлов;
3. организация/запуск LS-DYNA jobs и экспорт результатов;
4. генерация ROM, отчетов, CSV и графиков сравнения с FE.

## Запуск

```bash
python main.py
```

При запуске пользователь:

1. выбирает архив проекта Ansys Workbench `*.wbpz` через проводник;
2. указывает, используется ли параметризованная модель;
3. для параметризованной модели задает стартовый номер параметра `P`, количество параметров и значения параметров.

JSON-конфигурации больше не используются. Все штатные настройки этапов находятся в коде проекта в `step_rom/defaults.py`, а пользовательские значения подставляются во время запуска.

## Логирование

Подробный лог каждого запуска пишется в файл:

```text
step_rom_pipeline.log
```

В лог попадают начало и конец каждого из 4 этапов, весь вывод старых расчетных процедур и полный traceback ошибки, если выполнение остановилось.

## Основные файлы проекта

- `main.py` — единственная точка запуска.
- `step_rom/` — вспомогательные классы, сбор пользовательских данных, конфигурация, загрузка этапов и оркестрация пайплайна.
- `1_Exports_files_LS_DYNA.py` — модуль первого этапа.
- `2_Generate_k_files.py` — модуль второго этапа.
- `3_Ls_dyna_run_configs.py` — модуль третьего этапа.
- `4_Generate_ROM.py` — модуль четвертого этапа.
